/*--------------------------------*- C++ -*----------------------------------*\
| =========                 |                                                 |
| \\      /  F ield         | OpenFOAM: The Open Source CFD Toolbox           |
|  \\    /   O peration     | Version:  plus                                  |
|   \\  /    A nd           | Web:      www.OpenFOAM.com                      |
|    \\/     M anipulation  |                                                 |
\*---------------------------------------------------------------------------*/
FoamFile
{
    version     2.0;
    format      ascii;
    class       volScalarField;
    object      nut;
}
// * * * * * * * * * * * * * * * * * * * * * * * * * * * * * * * * * * * * * //

dimensions      [0 2 -1 0 0 0 0];

internalField   uniform 0.61;

boundaryField
{
    inlet
    {
        type            freestream;
        freestreamValue $internalField;
    }

    outlet
    {
        type            freestream;
        freestreamValue $internalField;
    }

    airfoil
    {
        type            nutUSpaldingWallFunction;
        value           uniform 0;
    }

    topAndBottom
    {
        type            freestream;
        freestreamValue $internalField;
    }

    frontAndBack
    {
        type            empty;
    }
}

// ************************************************************************* //
