/*--------------------------------*- C++ -*----------------------------------*\
| =========                 |                                                 |
| \\      /  F ield         | OpenFOAM: The Open Source CFD Toolbox           |
|  \\    /   O peration     | Version:  v1806                                 |
|   \\  /    A nd           | Web:      www.OpenFOAM.com                      |
|    \\/     M anipulation  |                                                 |
\*---------------------------------------------------------------------------*/
FoamFile
{
    version     2.0;
    format      ascii;
    class       volVectorField;
    object      U;
}
// * * * * * * * * * * * * * * * * * * * * * * * * * * * * * * * * * * * * * //

dimensions      [0 1 -1 0 0 0 0];

internalField   uniform (50 0 0);

boundaryField
{
    inlet
    {
        type            freestream;
        freestreamValue	$internalField;
    }

    outlet
    {
        type            zeroGradient;
    }

    airfoil
    {
	type            noSlip;
    }

    frontAndBack
    {
        type            empty;
    }
    
    topAndBottom
    {
	type            inletOutlet;
	inletValue      $internalField;
    }
    
}

// ************************************************************************* //
